<?xml version="1.0" encoding="UTF-8"?>

<!-- generated on 2023-03-30 10:43:45 by Eclipse SUMO netedit Version 1.16.0
<configuration xmlns:xsi="http://www.w3.org/2001/XMLSchema-instance" xsi:noNamespaceSchemaLocation="http://sumo.dlr.de/xsd/netconvertConfiguration.xsd">

    <input>
        <sumo-net-file value="D:\ISO及智能车连文件\强化学习道路规划程序包\0328_03.net.xml"/>
    </input>

    <output>
        <output-file value="D:\ISO及智能车连文件\强化学习道路规划程序包\0328_03.net.xml"/>
    </output>

    <processing>
        <geometry.min-radius.fix.railways value="false"/>
        <geometry.max-grade.fix value="false"/>
        <offset.disable-normalization value="true"/>
        <lefthand value="0"/>
    </processing>

    <junctions>
        <no-turnarounds value="true"/>
        <junctions.corner-detail value="5"/>
        <junctions.limit-turn-speed value="5.50"/>
        <rectangular-lane-cut value="0"/>
    </junctions>

    <pedestrian>
        <walkingareas value="0"/>
    </pedestrian>

</configuration>
-->

<net version="1.16" junctionCornerDetail="5" limitTurnSpeed="5.50" xmlns:xsi="http://www.w3.org/2001/XMLSchema-instance" xsi:noNamespaceSchemaLocation="http://sumo.dlr.de/xsd/net_file.xsd">

    <!-- <location netOffset="0.00,0.00" convBoundary="-125.00,-125.00,125.00,125.00" origBoundary="-10000000000.00,-10000000000.00,10000000000.00,10000000000.00" projParameter="!"/> -->
     <location netOffset="-536568.26,-4614528.70" convBoundary="-190.12,217.30,860.87,740.76" origBoundary="123.439398,41.681674,123.447949,41.692137" projParameter="+proj=utm +zone=51 +ellps=WGS84 +datum=WGS84 +units=m +no_defs"/>
    <edge id=":J0_0" function="internal">
        <lane id=":J0_0_0" index="0" speed="6.79" length="9.68" width="4.00" shape="-6.00,12.00 -6.38,9.38 -7.50,7.50 -9.38,6.38 -12.00,6.00"/>
    </edge>
    <edge id=":J0_1" function="internal">
        <lane id=":J0_1_0" index="0" speed="13.89" length="24.00" width="4.00" shape="-6.00,12.00 -6.00,-12.00"/>
        <lane id=":J0_1_1" index="1" speed="13.89" length="24.00" width="4.00" shape="-2.00,12.00 -2.00,-12.00"/>
    </edge>
    <edge id=":J0_3" function="internal">
        <lane id=":J0_3_0" index="0" speed="10.02" length="6.51" width="4.00" shape="-2.00,12.00 -1.12,5.88 -0.96,5.60"/>
    </edge>
    <edge id=":J0_16" function="internal">
        <lane id=":J0_16_0" index="0" speed="10.02" length="16.07" width="4.00" shape="-0.96,5.60 1.50,1.50 5.88,-1.12 12.00,-2.00"/>
    </edge>
    <edge id=":J0_4" function="internal">
        <lane id=":J0_4_0" index="0" speed="6.79" length="9.68" width="4.00" shape="12.00,6.00 9.38,6.38 7.50,7.50 6.38,9.38 6.00,12.00"/>
    </edge>
    <edge id=":J0_5" function="internal">
        <lane id=":J0_5_0" index="0" speed="13.89" length="24.00" width="4.00" shape="12.00,6.00 -12.00,6.00"/>
        <lane id=":J0_5_1" index="1" speed="13.89" length="24.00" width="4.00" shape="12.00,2.00 -12.00,2.00"/>
    </edge>
    <edge id=":J0_7" function="internal">
        <lane id=":J0_7_0" index="0" speed="10.02" length="22.58" width="4.00" shape="12.00,2.00 5.88,1.12 1.50,-1.50 -1.12,-5.88 -2.00,-12.00"/>
    </edge>
    <edge id=":J0_8" function="internal">
        <lane id=":J0_8_0" index="0" speed="6.79" length="9.68" width="4.00" shape="6.00,-12.00 6.38,-9.38 7.50,-7.50 9.38,-6.38 12.00,-6.00"/>
    </edge>
    <edge id=":J0_9" function="internal">
        <lane id=":J0_9_0" index="0" speed="13.89" length="24.00" width="4.00" shape="6.00,-12.00 6.00,12.00"/>
        <lane id=":J0_9_1" index="1" speed="13.89" length="24.00" width="4.00" shape="2.00,-12.00 2.00,12.00"/>
    </edge>
    <edge id=":J0_11" function="internal">
        <lane id=":J0_11_0" index="0" speed="10.02" length="6.51" width="4.00" shape="2.00,-12.00 1.12,-5.88 0.96,-5.60"/>
    </edge>
    <edge id=":J0_17" function="internal">
        <lane id=":J0_17_0" index="0" speed="10.02" length="16.07" width="4.00" shape="0.96,-5.60 -1.50,-1.50 -5.88,1.12 -12.00,2.00"/>
    </edge>
    <edge id=":J0_12" function="internal">
        <lane id=":J0_12_0" index="0" speed="6.79" length="9.68" width="4.00" shape="-12.00,-6.00 -9.38,-6.38 -7.50,-7.50 -6.38,-9.38 -6.00,-12.00"/>
    </edge>
    <edge id=":J0_13" function="internal">
        <lane id=":J0_13_0" index="0" speed="13.89" length="24.00" width="4.00" shape="-12.00,-6.00 12.00,-6.00"/>
        <lane id=":J0_13_1" index="1" speed="13.89" length="24.00" width="4.00" shape="-12.00,-2.00 12.00,-2.00"/>
    </edge>
    <edge id=":J0_15" function="internal">
        <lane id=":J0_15_0" index="0" speed="10.02" length="22.58" width="4.00" shape="-12.00,-2.00 -5.88,-1.12 -1.50,1.50 1.12,5.88 2.00,12.00"/>
    </edge>

    <edge id="-E0" from="J1" to="J0" priority="-1">
        <lane id="-E0_0" index="0" speed="13.89" length="113.00" width="4.00" shape="125.00,6.00 12.00,6.00"/>
        <lane id="-E0_1" index="1" speed="13.89" length="113.00" width="4.00" shape="125.00,2.00 12.00,2.00"/>
    </edge>
    <edge id="-E1" from="J2" to="J0" priority="-1">
        <lane id="-E1_0" index="0" speed="13.89" length="113.00" width="4.00" shape="-6.00,125.00 -6.00,12.00"/>
        <lane id="-E1_1" index="1" speed="13.89" length="113.00" width="4.00" shape="-2.00,125.00 -2.00,12.00"/>
    </edge>
    <edge id="-E2" from="J3" to="J0" priority="-1">
        <lane id="-E2_0" index="0" speed="13.89" length="113.00" width="4.00" shape="-125.00,-6.00 -12.00,-6.00"/>
        <lane id="-E2_1" index="1" speed="13.89" length="113.00" width="4.00" shape="-125.00,-2.00 -12.00,-2.00"/>
    </edge>
    <edge id="-E3" from="J4" to="J0" priority="-1">
        <lane id="-E3_0" index="0" speed="13.89" length="113.00" width="4.00" shape="6.00,-125.00 6.00,-12.00"/>
        <lane id="-E3_1" index="1" speed="13.89" length="113.00" width="4.00" shape="2.00,-125.00 2.00,-12.00"/>
    </edge>
    <edge id="E0" from="J0" to="J1" priority="-1">
        <lane id="E0_0" index="0" speed="13.89" length="113.00" width="4.00" shape="12.00,-6.00 125.00,-6.00"/>
        <lane id="E0_1" index="1" speed="13.89" length="113.00" width="4.00" shape="12.00,-2.00 125.00,-2.00"/>
    </edge>
    <edge id="E1" from="J0" to="J2" priority="-1">
        <lane id="E1_0" index="0" speed="13.89" length="113.00" width="4.00" shape="6.00,12.00 6.00,125.00"/>
        <lane id="E1_1" index="1" speed="13.89" length="113.00" width="4.00" shape="2.00,12.00 2.00,125.00"/>
    </edge>
    <edge id="E2" from="J0" to="J3" priority="-1">
        <lane id="E2_0" index="0" speed="13.89" length="113.00" width="4.00" shape="-12.00,6.00 -125.00,6.00"/>
        <lane id="E2_1" index="1" speed="13.89" length="113.00" width="4.00" shape="-12.00,2.00 -125.00,2.00"/>
    </edge>
    <edge id="E3" from="J0" to="J4" priority="-1">
        <lane id="E3_0" index="0" speed="13.89" length="113.00" width="4.00" shape="-6.00,-12.00 -6.00,-125.00"/>
        <lane id="E3_1" index="1" speed="13.89" length="113.00" width="4.00" shape="-2.00,-12.00 -2.00,-125.00"/>
    </edge>

    <junction id="J0" type="priority" x="0.00" y="0.00" incLanes="-E1_0 -E1_1 -E0_0 -E0_1 -E3_0 -E3_1 -E2_0 -E2_1" intLanes=":J0_0_0 :J0_1_0 :J0_1_1 :J0_16_0 :J0_4_0 :J0_5_0 :J0_5_1 :J0_7_0 :J0_8_0 :J0_9_0 :J0_9_1 :J0_17_0 :J0_12_0 :J0_13_0 :J0_13_1 :J0_15_0" shape="-8.00,12.00 8.00,12.00 8.44,9.78 9.00,9.00 9.78,8.44 10.78,8.11 12.00,8.00 12.00,-8.00 9.78,-8.44 9.00,-9.00 8.44,-9.78 8.11,-10.78 8.00,-12.00 -8.00,-12.00 -8.44,-9.78 -9.00,-9.00 -9.78,-8.44 -10.78,-8.11 -12.00,-8.00 -12.00,8.00 -9.78,8.44 -9.00,9.00 -8.44,9.78 -8.11,10.78">
        <request index="0"  response="0000000000000000" foes="0000000001100000" cont="0"/>
        <request index="1"  response="0000000000000000" foes="1111100011100000" cont="0"/>
        <request index="2"  response="0000000000000000" foes="1111100011100000" cont="0"/>
        <request index="3"  response="0000011000000000" foes="1110011011100000" cont="1"/>
        <request index="4"  response="0000011000000000" foes="0000011000000000" cont="0"/>
        <request index="5"  response="0000111000001111" foes="1000111000001111" cont="0"/>
        <request index="6"  response="0000111000001111" foes="1000111000001111" cont="0"/>
        <request index="7"  response="0110111000001110" foes="0110111000001110" cont="0"/>
        <request index="8"  response="0000000000000000" foes="0110000000000000" cont="0"/>
        <request index="9"  response="0000000000000000" foes="1110000011111000" cont="0"/>
        <request index="10" response="0000000000000000" foes="1110000011111000" cont="0"/>
        <request index="11" response="0000000000000110" foes="1110000011100110" cont="1"/>
        <request index="12" response="0000000000000110" foes="0000000000000110" cont="0"/>
        <request index="13" response="0000111100001110" foes="0000111110001110" cont="0"/>
        <request index="14" response="0000111100001110" foes="0000111110001110" cont="0"/>
        <request index="15" response="0000111001101110" foes="0000111001101110" cont="0"/>
    </junction>
    <junction id="J1" type="dead_end" x="125.00" y="0.00" incLanes="E0_0 E0_1" intLanes="" shape="125.00,0.00 125.00,-8.00 125.00,0.00"/>
    <junction id="J2" type="dead_end" x="0.00" y="125.00" incLanes="E1_0 E1_1" intLanes="" shape="0.00,125.00 8.00,125.00 0.00,125.00"/>
    <junction id="J3" type="dead_end" x="-125.00" y="0.00" incLanes="E2_0 E2_1" intLanes="" shape="-125.00,0.00 -125.00,8.00 -125.00,0.00"/>
    <junction id="J4" type="dead_end" x="0.00" y="-125.00" incLanes="E3_0 E3_1" intLanes="" shape="0.00,-125.00 -8.00,-125.00 0.00,-125.00"/>

    <junction id=":J0_16_0" type="internal" x="-0.96" y="5.60" incLanes=":J0_3_0 -E3_0 -E3_1" intLanes=":J0_5_0 :J0_5_1 :J0_7_0 :J0_8_0 :J0_9_0 :J0_9_1 :J0_13_0 :J0_13_1 :J0_15_0"/>
    <junction id=":J0_17_0" type="internal" x="0.96" y="-5.60" incLanes=":J0_11_0 -E1_0 -E1_1" intLanes=":J0_0_0 :J0_1_0 :J0_1_1 :J0_5_0 :J0_5_1 :J0_7_0 :J0_13_0 :J0_13_1 :J0_15_0"/>

    <connection from="-E0" to="E1" fromLane="0" toLane="0" via=":J0_4_0" dir="r" state="m"/>
    <connection from="-E0" to="E2" fromLane="0" toLane="0" via=":J0_5_0" dir="s" state="m"/>
    <connection from="-E0" to="E2" fromLane="1" toLane="1" via=":J0_5_1" dir="s" state="m"/>
    <connection from="-E0" to="E3" fromLane="1" toLane="1" via=":J0_7_0" dir="l" state="m"/>
    <connection from="-E1" to="E2" fromLane="0" toLane="0" via=":J0_0_0" dir="r" state="M"/>
    <connection from="-E1" to="E3" fromLane="0" toLane="0" via=":J0_1_0" dir="s" state="M"/>
    <connection from="-E1" to="E3" fromLane="1" toLane="1" via=":J0_1_1" dir="s" state="M"/>
    <connection from="-E1" to="E0" fromLane="1" toLane="1" via=":J0_3_0" dir="l" state="m"/>
    <connection from="-E2" to="E3" fromLane="0" toLane="0" via=":J0_12_0" dir="r" state="m"/>
    <connection from="-E2" to="E0" fromLane="0" toLane="0" via=":J0_13_0" dir="s" state="m"/>
    <connection from="-E2" to="E0" fromLane="1" toLane="1" via=":J0_13_1" dir="s" state="m"/>
    <connection from="-E2" to="E1" fromLane="1" toLane="1" via=":J0_15_0" dir="l" state="m"/>
    <connection from="-E3" to="E0" fromLane="0" toLane="0" via=":J0_8_0" dir="r" state="M"/>
    <connection from="-E3" to="E1" fromLane="0" toLane="0" via=":J0_9_0" dir="s" state="M"/>
    <connection from="-E3" to="E1" fromLane="1" toLane="1" via=":J0_9_1" dir="s" state="M"/>
    <connection from="-E3" to="E2" fromLane="1" toLane="1" via=":J0_11_0" dir="l" state="m"/>

    <connection from=":J0_0" to="E2" fromLane="0" toLane="0" dir="r" state="M"/>
    <connection from=":J0_1" to="E3" fromLane="0" toLane="0" dir="s" state="M"/>
    <connection from=":J0_1" to="E3" fromLane="1" toLane="1" dir="s" state="M"/>
    <connection from=":J0_3" to="E0" fromLane="0" toLane="1" via=":J0_16_0" dir="l" state="m"/>
    <connection from=":J0_16" to="E0" fromLane="0" toLane="1" dir="l" state="M"/>
    <connection from=":J0_4" to="E1" fromLane="0" toLane="0" dir="r" state="M"/>
    <connection from=":J0_5" to="E2" fromLane="0" toLane="0" dir="s" state="M"/>
    <connection from=":J0_5" to="E2" fromLane="1" toLane="1" dir="s" state="M"/>
    <connection from=":J0_7" to="E3" fromLane="0" toLane="1" dir="l" state="M"/>
    <connection from=":J0_8" to="E0" fromLane="0" toLane="0" dir="r" state="M"/>
    <connection from=":J0_9" to="E1" fromLane="0" toLane="0" dir="s" state="M"/>
    <connection from=":J0_9" to="E1" fromLane="1" toLane="1" dir="s" state="M"/>
    <connection from=":J0_11" to="E2" fromLane="0" toLane="1" via=":J0_17_0" dir="l" state="m"/>
    <connection from=":J0_17" to="E2" fromLane="0" toLane="1" dir="l" state="M"/>
    <connection from=":J0_12" to="E3" fromLane="0" toLane="0" dir="r" state="M"/>
    <connection from=":J0_13" to="E0" fromLane="0" toLane="0" dir="s" state="M"/>
    <connection from=":J0_13" to="E0" fromLane="1" toLane="1" dir="s" state="M"/>
    <connection from=":J0_15" to="E1" fromLane="0" toLane="1" dir="l" state="M"/>

</net>
