<?xml version="1.0" encoding="UTF-8"?>

<!-- generated on 2023-06-09 11:19:32 by Eclipse SUMO netedit Version 1.16.0
-->

<additional xmlns:xsi="http://www.w3.org/2001/XMLSchema-instance" xsi:noNamespaceSchemaLocation="http://sumo.dlr.de/xsd/additional_file.xsd">
    <!-- Shapes -->
    <poly id="po_0" color="red" fill="1" lineWidth="0.10" layer="100.00" shape="0.079534,-12.052184 3.949274,-12.052184 3.949274,-19.894857 0.096733,-19.894857 0.096733,-12.034985"/>
    <poi id="po_1" type="waypoint" color="1,0,0" layer="100.00" x="100" y="-100"/>
</additional>
