<?xml version="1.16.0" encoding="UTF-8"?>
<configuration xmlns:xsi="http://www.w3.org/2001/XMLSchema-instance" xsi:noNamespaceSchemaLocation="http://sumo.dlr.de/xsd/sumoConfiguration.xsd">

    <gui-settings-file value="gui-settings.cfg"/>

    <input>
        <net-file value="RLmapsumoTL.net.xml"/>
        <route-files value="map.rou.xml"/>
        <additional-files value="RLmapsumo.poly.add.xml"/>
    </input>

    <time>
        <step-length value="1.0"/>
    </time>

    <processing>
        <default.speeddev value="100"/>
    </processing>

    <report>
        <duration-log.disable value="true"/>
        <no-step-log value="true"/>
    </report>

</configuration>
